*HEADING
**  
**  ABAQUS Input Deck Generated by MediAssist FEM Plugin 
** 
*Part, name=bunny-Part
*Node 
1, -0.0453204 , 0.0338646 , 0.0274011
2, -0.0492853 , 0.033846 , 0.0264101
3, -0.0492915 , 0.0342456 , 0.0240715
4, -0.0455878 , 0.0343776 , 0.0251648
5, -0.0464078 , 0.034552 , 0.0316779
6, -0.0415243 , 0.0341986 , 0.0289057
7, -0.0413297 , 0.0339759 , 0.0265918
8, -0.0375351 , 0.0351594 , 0.0248502
9, -0.0386 , 0.0342 , 0.0272
10, -0.0428641 , 0.0371724 , 0.0218126
11, -0.0382671 , 0.0342372 , 0.0280713
12, -0.0383846 , 0.0343867 , 0.030104
13, -0.0363535 , 0.0344571 , 0.0345246
14, -0.0412836 , 0.0344571 , 0.0327081
15, -0.0454307 , 0.0375988 , 0.0202558
16, -0.049 , 0.0357234 , 0.0206888
17, -0.0357317 , 0.0340178 , 0.0243036
18, -0.0350075 , 0.0342759 , 0.0272363
19, -0.0366495 , 0.0353374 , 0.0229011
20, -0.053357 , 0.0335215 , 0.0143533
** ... 4554 like lines cut
*Element, type=C3D4
1 ,2732 ,2242 ,3599 ,4253
2 ,3825 ,3463 ,4244 ,4527
3 ,10 ,7 ,8 ,3991
4 ,3409 ,3373 ,3355 ,3497
5 ,3934 ,3614 ,3960 ,4534
6 ,979 ,985 ,3572 ,3588
7 ,3309 ,3411 ,3374 ,4005
8 ,118 ,93 ,85 ,94
9 ,2887 ,2888 ,2583 ,4436
10 ,3545 ,3690 ,3815 ,3873
11 ,1764 ,1765 ,3683 ,4362
12 ,2149 ,3008 ,2148 ,3833
13 ,3913 ,1520 ,4464 ,1519
14 ,597 ,639 ,638 ,640
15 ,1735 ,1734 ,3981 ,4314
16 ,2716 ,2601 ,2708 ,4073
17 ,934 ,936 ,4105 ,4333
18 ,3283 ,3323 ,3944 ,4496
19 ,2265 ,1918 ,2268 ,3999
20 ,7 ,8 ,3991 ,4413
** ... 17331 like lines cut
*Elset, elset=SolidSectionSet, internal, generate
  1,  17351,     1
** Section: bunny-Section
*Solid Section, elset=SolidSectionSet, material=Neo-Hooke
*End Part
**
**
** ASSEMBLY
**
*Assembly, name=bunny-Assembly
**
*Instance, name=bunny-Instance, part=bunny-Part
*End Instance
**
*Nset, nset=_StaticPickedSet0, internal, instance=bunny-Instance
 ,1
*Nset, nset=_StaticPickedSet1, internal, instance=bunny-Instance
 ,2
*Nset, nset=_StaticPickedSet2, internal, instance=bunny-Instance
 ,3
*Nset, nset=_StaticPickedSet3, internal, instance=bunny-Instance
 ,4
*Nset, nset=_StaticPickedSet4, internal, instance=bunny-Instance
 ,5
*Nset, nset=_StaticPickedSet5, internal, instance=bunny-Instance
 ,6
*Nset, nset=_StaticPickedSet6, internal, instance=bunny-Instance
 ,7
*Nset, nset=_StaticPickedSet7, internal, instance=bunny-Instance
 ,9
*Nset, nset=_StaticPickedSet8, internal, instance=bunny-Instance
 ,11
*Nset, nset=_StaticPickedSet9, internal, instance=bunny-Instance
 ,12
*Nset, nset=_StaticPickedSet10, internal, instance=bunny-Instance
 ,13
*Nset, nset=_StaticPickedSet11, internal, instance=bunny-Instance
 ,14
*Nset, nset=_StaticPickedSet12, internal, instance=bunny-Instance
 ,17
*Nset, nset=_StaticPickedSet13, internal, instance=bunny-Instance
 ,18
*Nset, nset=_StaticPickedSet14, internal, instance=bunny-Instance
 ,20
*Nset, nset=_StaticPickedSet15, internal, instance=bunny-Instance
 ,21
*Nset, nset=_StaticPickedSet16, internal, instance=bunny-Instance
 ,23
*Nset, nset=_StaticPickedSet17, internal, instance=bunny-Instance
 ,25
*Nset, nset=_StaticPickedSet18, internal, instance=bunny-Instance
 ,26
*Nset, nset=_StaticPickedSet19, internal, instance=bunny-Instance
 ,28
** ... 480 like lines cut
*End Assembly
**
** MATERIALS
**
*Material, name=Neo-Hooke
*Damping, beta=0.21
*Density
1070.,
*Hyperelastic, neo hooke
365., 0.000838
**
** BOUNDARY CONDITIONS
**
** Name: Fixed Type: Symmetry/Antisymmetry/Encastre
*Boundary
_StaticPickedSet0, PINNED 
** Name: Fixed Type: Symmetry/Antisymmetry/Encastre
*Boundary
_StaticPickedSet1, PINNED 
** Name: Fixed Type: Symmetry/Antisymmetry/Encastre
*Boundary
_StaticPickedSet2, PINNED 
** Name: Fixed Type: Symmetry/Antisymmetry/Encastre
*Boundary
_StaticPickedSet3, PINNED 
** Name: Fixed Type: Symmetry/Antisymmetry/Encastre
*Boundary
_StaticPickedSet4, PINNED 
** Name: Fixed Type: Symmetry/Antisymmetry/Encastre
*Boundary
_StaticPickedSet5, PINNED 
** Name: Fixed Type: Symmetry/Antisymmetry/Encastre
*Boundary
_StaticPickedSet6, PINNED 
** Name: Fixed Type: Symmetry/Antisymmetry/Encastre
*Boundary
_StaticPickedSet7, PINNED 
** Name: Fixed Type: Symmetry/Antisymmetry/Encastre
*Boundary
_StaticPickedSet8, PINNED 
** Name: Fixed Type: Symmetry/Antisymmetry/Encastre
*Boundary
_StaticPickedSet9, PINNED 
** Name: Fixed Type: Symmetry/Antisymmetry/Encastre
*Boundary
_StaticPickedSet10, PINNED 
** Name: Fixed Type: Symmetry/Antisymmetry/Encastre
*Boundary
_StaticPickedSet11, PINNED 
** Name: Fixed Type: Symmetry/Antisymmetry/Encastre
*Boundary
_StaticPickedSet12, PINNED 
** Name: Fixed Type: Symmetry/Antisymmetry/Encastre
*Boundary
_StaticPickedSet13, PINNED 
** Name: Fixed Type: Symmetry/Antisymmetry/Encastre
*Boundary
_StaticPickedSet14, PINNED 
** Name: Fixed Type: Symmetry/Antisymmetry/Encastre
*Boundary
_StaticPickedSet15, PINNED 
** Name: Fixed Type: Symmetry/Antisymmetry/Encastre
*Boundary
_StaticPickedSet16, PINNED 
** Name: Fixed Type: Symmetry/Antisymmetry/Encastre
*Boundary
_StaticPickedSet17, PINNED 
** Name: Fixed Type: Symmetry/Antisymmetry/Encastre
*Boundary
_StaticPickedSet18, PINNED 
** Name: Fixed Type: Symmetry/Antisymmetry/Encastre
*Boundary
_StaticPickedSet19, PINNED 
** Name: Fixed Type: Symmetry/Antisymmetry/Encastre
*Boundary
_StaticPickedSet20, PINNED 
** Name: Fixed Type: Symmetry/Antisymmetry/Encastre
*Boundary
_StaticPickedSet21, PINNED 
** Name: Fixed Type: Symmetry/Antisymmetry/Encastre
*Boundary
_StaticPickedSet22, PINNED 
** Name: Fixed Type: Symmetry/Antisymmetry/Encastre
*Boundary
_StaticPickedSet23, PINNED 
** Name: Fixed Type: Symmetry/Antisymmetry/Encastre
*Boundary
_StaticPickedSet24, PINNED 
** Name: Fixed Type: Symmetry/Antisymmetry/Encastre
*Boundary
_StaticPickedSet25, PINNED 
** Name: Fixed Type: Symmetry/Antisymmetry/Encastre
*Boundary
_StaticPickedSet26, PINNED 
** Name: Fixed Type: Symmetry/Antisymmetry/Encastre
*Boundary
_StaticPickedSet27, PINNED 
** Name: Fixed Type: Symmetry/Antisymmetry/Encastre
*Boundary
_StaticPickedSet28, PINNED 
** Name: Fixed Type: Symmetry/Antisymmetry/Encastre
*Boundary
_StaticPickedSet29, PINNED 
** Name: Fixed Type: Symmetry/Antisymmetry/Encastre
*Boundary
_StaticPickedSet30, PINNED 
** Name: Fixed Type: Symmetry/Antisymmetry/Encastre
*Boundary
_StaticPickedSet31, PINNED 
** Name: Fixed Type: Symmetry/Antisymmetry/Encastre
*Boundary
_StaticPickedSet32, PINNED 
** Name: Fixed Type: Symmetry/Antisymmetry/Encastre
*Boundary
_StaticPickedSet33, PINNED 
** Name: Fixed Type: Symmetry/Antisymmetry/Encastre
*Boundary
_StaticPickedSet34, PINNED 
** Name: Fixed Type: Symmetry/Antisymmetry/Encastre
*Boundary
_StaticPickedSet35, PINNED 
** Name: Fixed Type: Symmetry/Antisymmetry/Encastre
*Boundary
_StaticPickedSet36, PINNED 
** Name: Fixed Type: Symmetry/Antisymmetry/Encastre
*Boundary
_StaticPickedSet37, PINNED 
** Name: Fixed Type: Symmetry/Antisymmetry/Encastre
*Boundary
_StaticPickedSet38, PINNED 
** Name: Fixed Type: Symmetry/Antisymmetry/Encastre
*Boundary
_StaticPickedSet39, PINNED 
** Name: Fixed Type: Symmetry/Antisymmetry/Encastre
*Boundary
_StaticPickedSet40, PINNED 
** Name: Fixed Type: Symmetry/Antisymmetry/Encastre
*Boundary
_StaticPickedSet41, PINNED 
** Name: Fixed Type: Symmetry/Antisymmetry/Encastre
*Boundary
_StaticPickedSet42, PINNED 
** Name: Fixed Type: Symmetry/Antisymmetry/Encastre
*Boundary
_StaticPickedSet43, PINNED 
** Name: Fixed Type: Symmetry/Antisymmetry/Encastre
*Boundary
_StaticPickedSet44, PINNED 
** Name: Fixed Type: Symmetry/Antisymmetry/Encastre
*Boundary
_StaticPickedSet45, PINNED 
** Name: Fixed Type: Symmetry/Antisymmetry/Encastre
*Boundary
_StaticPickedSet46, PINNED 
** Name: Fixed Type: Symmetry/Antisymmetry/Encastre
*Boundary
_StaticPickedSet47, PINNED 
** Name: Fixed Type: Symmetry/Antisymmetry/Encastre
*Boundary
_StaticPickedSet48, PINNED 
** Name: Fixed Type: Symmetry/Antisymmetry/Encastre
*Boundary
_StaticPickedSet49, PINNED 
** Name: Fixed Type: Symmetry/Antisymmetry/Encastre
*Boundary
_StaticPickedSet50, PINNED 
** Name: Fixed Type: Symmetry/Antisymmetry/Encastre
*Boundary
_StaticPickedSet51, PINNED 
** Name: Fixed Type: Symmetry/Antisymmetry/Encastre
*Boundary
_StaticPickedSet52, PINNED 
** Name: Fixed Type: Symmetry/Antisymmetry/Encastre
*Boundary
_StaticPickedSet53, PINNED 
** Name: Fixed Type: Symmetry/Antisymmetry/Encastre
*Boundary
_StaticPickedSet54, PINNED 
** Name: Fixed Type: Symmetry/Antisymmetry/Encastre
*Boundary
_StaticPickedSet55, PINNED 
** Name: Fixed Type: Symmetry/Antisymmetry/Encastre
*Boundary
_StaticPickedSet56, PINNED 
** Name: Fixed Type: Symmetry/Antisymmetry/Encastre
*Boundary
_StaticPickedSet57, PINNED 
** Name: Fixed Type: Symmetry/Antisymmetry/Encastre
*Boundary
_StaticPickedSet58, PINNED 
** Name: Fixed Type: Symmetry/Antisymmetry/Encastre
*Boundary
_StaticPickedSet59, PINNED 
** Name: Fixed Type: Symmetry/Antisymmetry/Encastre
*Boundary
_StaticPickedSet60, PINNED 
** Name: Fixed Type: Symmetry/Antisymmetry/Encastre
*Boundary
_StaticPickedSet61, PINNED 
** Name: Fixed Type: Symmetry/Antisymmetry/Encastre
*Boundary
_StaticPickedSet62, PINNED 
** Name: Fixed Type: Symmetry/Antisymmetry/Encastre
*Boundary
_StaticPickedSet63, PINNED 
** Name: Fixed Type: Symmetry/Antisymmetry/Encastre
*Boundary
_StaticPickedSet64, PINNED 
** Name: Fixed Type: Symmetry/Antisymmetry/Encastre
*Boundary
_StaticPickedSet65, PINNED 
** Name: Fixed Type: Symmetry/Antisymmetry/Encastre
*Boundary
_StaticPickedSet66, PINNED 
** Name: Fixed Type: Symmetry/Antisymmetry/Encastre
*Boundary
_StaticPickedSet67, PINNED 
** Name: Fixed Type: Symmetry/Antisymmetry/Encastre
*Boundary
_StaticPickedSet68, PINNED 
** Name: Fixed Type: Symmetry/Antisymmetry/Encastre
*Boundary
_StaticPickedSet69, PINNED 
** Name: Fixed Type: Symmetry/Antisymmetry/Encastre
*Boundary
_StaticPickedSet70, PINNED 
** Name: Fixed Type: Symmetry/Antisymmetry/Encastre
*Boundary
_StaticPickedSet71, PINNED 
** Name: Fixed Type: Symmetry/Antisymmetry/Encastre
*Boundary
_StaticPickedSet72, PINNED 
** Name: Fixed Type: Symmetry/Antisymmetry/Encastre
*Boundary
_StaticPickedSet73, PINNED 
** Name: Fixed Type: Symmetry/Antisymmetry/Encastre
*Boundary
_StaticPickedSet74, PINNED 
** Name: Fixed Type: Symmetry/Antisymmetry/Encastre
*Boundary
_StaticPickedSet75, PINNED 
** Name: Fixed Type: Symmetry/Antisymmetry/Encastre
*Boundary
_StaticPickedSet76, PINNED 
** Name: Fixed Type: Symmetry/Antisymmetry/Encastre
*Boundary
_StaticPickedSet77, PINNED 
** Name: Fixed Type: Symmetry/Antisymmetry/Encastre
*Boundary
_StaticPickedSet78, PINNED 
** Name: Fixed Type: Symmetry/Antisymmetry/Encastre
*Boundary
_StaticPickedSet79, PINNED 
** Name: Fixed Type: Symmetry/Antisymmetry/Encastre
*Boundary
_StaticPickedSet80, PINNED 
** Name: Fixed Type: Symmetry/Antisymmetry/Encastre
*Boundary
_StaticPickedSet81, PINNED 
** Name: Fixed Type: Symmetry/Antisymmetry/Encastre
*Boundary
_StaticPickedSet82, PINNED 
** Name: Fixed Type: Symmetry/Antisymmetry/Encastre
*Boundary
_StaticPickedSet83, PINNED 
** Name: Fixed Type: Symmetry/Antisymmetry/Encastre
*Boundary
_StaticPickedSet84, PINNED 
** Name: Fixed Type: Symmetry/Antisymmetry/Encastre
*Boundary
_StaticPickedSet85, PINNED 
** Name: Fixed Type: Symmetry/Antisymmetry/Encastre
*Boundary
_StaticPickedSet86, PINNED 
** Name: Fixed Type: Symmetry/Antisymmetry/Encastre
*Boundary
_StaticPickedSet87, PINNED 
** Name: Fixed Type: Symmetry/Antisymmetry/Encastre
*Boundary
_StaticPickedSet88, PINNED 
** Name: Fixed Type: Symmetry/Antisymmetry/Encastre
*Boundary
_StaticPickedSet89, PINNED 
** Name: Fixed Type: Symmetry/Antisymmetry/Encastre
*Boundary
_StaticPickedSet90, PINNED 
** Name: Fixed Type: Symmetry/Antisymmetry/Encastre
*Boundary
_StaticPickedSet91, PINNED 
** Name: Fixed Type: Symmetry/Antisymmetry/Encastre
*Boundary
_StaticPickedSet92, PINNED 
** Name: Fixed Type: Symmetry/Antisymmetry/Encastre
*Boundary
_StaticPickedSet93, PINNED 
** Name: Fixed Type: Symmetry/Antisymmetry/Encastre
*Boundary
_StaticPickedSet94, PINNED 
** Name: Fixed Type: Symmetry/Antisymmetry/Encastre
*Boundary
_StaticPickedSet95, PINNED 
** Name: Fixed Type: Symmetry/Antisymmetry/Encastre
*Boundary
_StaticPickedSet96, PINNED 
** Name: Fixed Type: Symmetry/Antisymmetry/Encastre
*Boundary
_StaticPickedSet97, PINNED 
** Name: Fixed Type: Symmetry/Antisymmetry/Encastre
*Boundary
_StaticPickedSet98, PINNED 
** Name: Fixed Type: Symmetry/Antisymmetry/Encastre
*Boundary
_StaticPickedSet99, PINNED 
** Name: Fixed Type: Symmetry/Antisymmetry/Encastre
*Boundary
_StaticPickedSet100, PINNED 
** Name: Fixed Type: Symmetry/Antisymmetry/Encastre
*Boundary
_StaticPickedSet101, PINNED 
** Name: Fixed Type: Symmetry/Antisymmetry/Encastre
*Boundary
_StaticPickedSet102, PINNED 
** Name: Fixed Type: Symmetry/Antisymmetry/Encastre
*Boundary
_StaticPickedSet103, PINNED 
** Name: Fixed Type: Symmetry/Antisymmetry/Encastre
*Boundary
_StaticPickedSet104, PINNED 
** Name: Fixed Type: Symmetry/Antisymmetry/Encastre
*Boundary
_StaticPickedSet105, PINNED 
** Name: Fixed Type: Symmetry/Antisymmetry/Encastre
*Boundary
_StaticPickedSet106, PINNED 
** Name: Fixed Type: Symmetry/Antisymmetry/Encastre
*Boundary
_StaticPickedSet107, PINNED 
** Name: Fixed Type: Symmetry/Antisymmetry/Encastre
*Boundary
_StaticPickedSet108, PINNED 
** Name: Fixed Type: Symmetry/Antisymmetry/Encastre
*Boundary
_StaticPickedSet109, PINNED 
** Name: Fixed Type: Symmetry/Antisymmetry/Encastre
*Boundary
_StaticPickedSet110, PINNED 
** Name: Fixed Type: Symmetry/Antisymmetry/Encastre
*Boundary
_StaticPickedSet111, PINNED 
** Name: Fixed Type: Symmetry/Antisymmetry/Encastre
*Boundary
_StaticPickedSet112, PINNED 
** Name: Fixed Type: Symmetry/Antisymmetry/Encastre
*Boundary
_StaticPickedSet113, PINNED 
** Name: Fixed Type: Symmetry/Antisymmetry/Encastre
*Boundary
_StaticPickedSet114, PINNED 
** Name: Fixed Type: Symmetry/Antisymmetry/Encastre
*Boundary
_StaticPickedSet115, PINNED 
** Name: Fixed Type: Symmetry/Antisymmetry/Encastre
*Boundary
_StaticPickedSet116, PINNED 
** Name: Fixed Type: Symmetry/Antisymmetry/Encastre
*Boundary
_StaticPickedSet117, PINNED 
** Name: Fixed Type: Symmetry/Antisymmetry/Encastre
*Boundary
_StaticPickedSet118, PINNED 
** Name: Fixed Type: Symmetry/Antisymmetry/Encastre
*Boundary
_StaticPickedSet119, PINNED 
** Name: Fixed Type: Symmetry/Antisymmetry/Encastre
*Boundary
_StaticPickedSet120, PINNED 
** Name: Fixed Type: Symmetry/Antisymmetry/Encastre
*Boundary
_StaticPickedSet121, PINNED 
** Name: Fixed Type: Symmetry/Antisymmetry/Encastre
*Boundary
_StaticPickedSet122, PINNED 
** Name: Fixed Type: Symmetry/Antisymmetry/Encastre
*Boundary
_StaticPickedSet123, PINNED 
** Name: Fixed Type: Symmetry/Antisymmetry/Encastre
*Boundary
_StaticPickedSet124, PINNED 
** Name: Fixed Type: Symmetry/Antisymmetry/Encastre
*Boundary
_StaticPickedSet125, PINNED 
** Name: Fixed Type: Symmetry/Antisymmetry/Encastre
*Boundary
_StaticPickedSet126, PINNED 
** Name: Fixed Type: Symmetry/Antisymmetry/Encastre
*Boundary
_StaticPickedSet127, PINNED 
** Name: Fixed Type: Symmetry/Antisymmetry/Encastre
*Boundary
_StaticPickedSet128, PINNED 
** Name: Fixed Type: Symmetry/Antisymmetry/Encastre
*Boundary
_StaticPickedSet129, PINNED 
** Name: Fixed Type: Symmetry/Antisymmetry/Encastre
*Boundary
_StaticPickedSet130, PINNED 
** Name: Fixed Type: Symmetry/Antisymmetry/Encastre
*Boundary
_StaticPickedSet131, PINNED 
** Name: Fixed Type: Symmetry/Antisymmetry/Encastre
*Boundary
_StaticPickedSet132, PINNED 
** Name: Fixed Type: Symmetry/Antisymmetry/Encastre
*Boundary
_StaticPickedSet133, PINNED 
** Name: Fixed Type: Symmetry/Antisymmetry/Encastre
*Boundary
_StaticPickedSet134, PINNED 
** Name: Fixed Type: Symmetry/Antisymmetry/Encastre
*Boundary
_StaticPickedSet135, PINNED 
** Name: Fixed Type: Symmetry/Antisymmetry/Encastre
*Boundary
_StaticPickedSet136, PINNED 
** Name: Fixed Type: Symmetry/Antisymmetry/Encastre
*Boundary
_StaticPickedSet137, PINNED 
** Name: Fixed Type: Symmetry/Antisymmetry/Encastre
*Boundary
_StaticPickedSet138, PINNED 
** Name: Fixed Type: Symmetry/Antisymmetry/Encastre
*Boundary
_StaticPickedSet139, PINNED 
** Name: Fixed Type: Symmetry/Antisymmetry/Encastre
*Boundary
_StaticPickedSet140, PINNED 
** Name: Fixed Type: Symmetry/Antisymmetry/Encastre
*Boundary
_StaticPickedSet141, PINNED 
** Name: Fixed Type: Symmetry/Antisymmetry/Encastre
*Boundary
_StaticPickedSet142, PINNED 
** Name: Fixed Type: Symmetry/Antisymmetry/Encastre
*Boundary
_StaticPickedSet143, PINNED 
** Name: Fixed Type: Symmetry/Antisymmetry/Encastre
*Boundary
_StaticPickedSet144, PINNED 
** Name: Fixed Type: Symmetry/Antisymmetry/Encastre
*Boundary
_StaticPickedSet145, PINNED 
** Name: Fixed Type: Symmetry/Antisymmetry/Encastre
*Boundary
_StaticPickedSet146, PINNED 
** Name: Fixed Type: Symmetry/Antisymmetry/Encastre
*Boundary
_StaticPickedSet147, PINNED 
** Name: Fixed Type: Symmetry/Antisymmetry/Encastre
*Boundary
_StaticPickedSet148, PINNED 
** Name: Fixed Type: Symmetry/Antisymmetry/Encastre
*Boundary
_StaticPickedSet149, PINNED 
** Name: Fixed Type: Symmetry/Antisymmetry/Encastre
*Boundary
_StaticPickedSet150, PINNED 
** Name: Fixed Type: Symmetry/Antisymmetry/Encastre
*Boundary
_StaticPickedSet151, PINNED 
** Name: Fixed Type: Symmetry/Antisymmetry/Encastre
*Boundary
_StaticPickedSet152, PINNED 
** Name: Fixed Type: Symmetry/Antisymmetry/Encastre
*Boundary
_StaticPickedSet153, PINNED 
** Name: Fixed Type: Symmetry/Antisymmetry/Encastre
*Boundary
_StaticPickedSet154, PINNED 
** Name: Fixed Type: Symmetry/Antisymmetry/Encastre
*Boundary
_StaticPickedSet155, PINNED 
** Name: Fixed Type: Symmetry/Antisymmetry/Encastre
*Boundary
_StaticPickedSet156, PINNED 
** Name: Fixed Type: Symmetry/Antisymmetry/Encastre
*Boundary
_StaticPickedSet157, PINNED 
** Name: Fixed Type: Symmetry/Antisymmetry/Encastre
*Boundary
_StaticPickedSet158, PINNED 
** Name: Fixed Type: Symmetry/Antisymmetry/Encastre
*Boundary
_StaticPickedSet159, PINNED 
** Name: Fixed Type: Symmetry/Antisymmetry/Encastre
*Boundary
_StaticPickedSet160, PINNED 
** Name: Fixed Type: Symmetry/Antisymmetry/Encastre
*Boundary
_StaticPickedSet161, PINNED 
** Name: Fixed Type: Symmetry/Antisymmetry/Encastre
*Boundary
_StaticPickedSet162, PINNED 
** Name: Fixed Type: Symmetry/Antisymmetry/Encastre
*Boundary
_StaticPickedSet163, PINNED 
** Name: Fixed Type: Symmetry/Antisymmetry/Encastre
*Boundary
_StaticPickedSet164, PINNED 
** Name: Fixed Type: Symmetry/Antisymmetry/Encastre
*Boundary
_StaticPickedSet165, PINNED 
** Name: Fixed Type: Symmetry/Antisymmetry/Encastre
*Boundary
_StaticPickedSet166, PINNED 
** Name: Fixed Type: Symmetry/Antisymmetry/Encastre
*Boundary
_StaticPickedSet167, PINNED 
** Name: Fixed Type: Symmetry/Antisymmetry/Encastre
*Boundary
_StaticPickedSet168, PINNED 
** Name: Fixed Type: Symmetry/Antisymmetry/Encastre
*Boundary
_StaticPickedSet169, PINNED 
** Name: Fixed Type: Symmetry/Antisymmetry/Encastre
*Boundary
_StaticPickedSet170, PINNED 
** Name: Fixed Type: Symmetry/Antisymmetry/Encastre
*Boundary
_StaticPickedSet171, PINNED 
** Name: Fixed Type: Symmetry/Antisymmetry/Encastre
*Boundary
_StaticPickedSet172, PINNED 
** Name: Fixed Type: Symmetry/Antisymmetry/Encastre
*Boundary
_StaticPickedSet173, PINNED 
** Name: Fixed Type: Symmetry/Antisymmetry/Encastre
*Boundary
_StaticPickedSet174, PINNED 
** Name: Fixed Type: Symmetry/Antisymmetry/Encastre
*Boundary
_StaticPickedSet175, PINNED 
** Name: Fixed Type: Symmetry/Antisymmetry/Encastre
*Boundary
_StaticPickedSet176, PINNED 
** Name: Fixed Type: Symmetry/Antisymmetry/Encastre
*Boundary
_StaticPickedSet177, PINNED 
** Name: Fixed Type: Symmetry/Antisymmetry/Encastre
*Boundary
_StaticPickedSet178, PINNED 
** Name: Fixed Type: Symmetry/Antisymmetry/Encastre
*Boundary
_StaticPickedSet179, PINNED 
** Name: Fixed Type: Symmetry/Antisymmetry/Encastre
*Boundary
_StaticPickedSet180, PINNED 
** Name: Fixed Type: Symmetry/Antisymmetry/Encastre
*Boundary
_StaticPickedSet181, PINNED 
** Name: Fixed Type: Symmetry/Antisymmetry/Encastre
*Boundary
_StaticPickedSet182, PINNED 
** Name: Fixed Type: Symmetry/Antisymmetry/Encastre
*Boundary
_StaticPickedSet183, PINNED 
** Name: Fixed Type: Symmetry/Antisymmetry/Encastre
*Boundary
_StaticPickedSet184, PINNED 
** Name: Fixed Type: Symmetry/Antisymmetry/Encastre
*Boundary
_StaticPickedSet185, PINNED 
** Name: Fixed Type: Symmetry/Antisymmetry/Encastre
*Boundary
_StaticPickedSet186, PINNED 
** Name: Fixed Type: Symmetry/Antisymmetry/Encastre
*Boundary
_StaticPickedSet187, PINNED 
** Name: Fixed Type: Symmetry/Antisymmetry/Encastre
*Boundary
_StaticPickedSet188, PINNED 
** Name: Fixed Type: Symmetry/Antisymmetry/Encastre
*Boundary
_StaticPickedSet189, PINNED 
** Name: Fixed Type: Symmetry/Antisymmetry/Encastre
*Boundary
_StaticPickedSet190, PINNED 
** Name: Fixed Type: Symmetry/Antisymmetry/Encastre
*Boundary
_StaticPickedSet191, PINNED 
** Name: Fixed Type: Symmetry/Antisymmetry/Encastre
*Boundary
_StaticPickedSet192, PINNED 
** Name: Fixed Type: Symmetry/Antisymmetry/Encastre
*Boundary
_StaticPickedSet193, PINNED 
** Name: Fixed Type: Symmetry/Antisymmetry/Encastre
*Boundary
_StaticPickedSet194, PINNED 
** Name: Fixed Type: Symmetry/Antisymmetry/Encastre
*Boundary
_StaticPickedSet195, PINNED 
** Name: Fixed Type: Symmetry/Antisymmetry/Encastre
*Boundary
_StaticPickedSet196, PINNED 
** Name: Fixed Type: Symmetry/Antisymmetry/Encastre
*Boundary
_StaticPickedSet197, PINNED 
** Name: Fixed Type: Symmetry/Antisymmetry/Encastre
*Boundary
_StaticPickedSet198, PINNED 
** Name: Fixed Type: Symmetry/Antisymmetry/Encastre
*Boundary
_StaticPickedSet199, PINNED 
** Name: Fixed Type: Symmetry/Antisymmetry/Encastre
*Boundary
_StaticPickedSet200, PINNED 
** Name: Fixed Type: Symmetry/Antisymmetry/Encastre
*Boundary
_StaticPickedSet201, PINNED 
** Name: Fixed Type: Symmetry/Antisymmetry/Encastre
*Boundary
_StaticPickedSet202, PINNED 
** Name: Fixed Type: Symmetry/Antisymmetry/Encastre
*Boundary
_StaticPickedSet203, PINNED 
** Name: Fixed Type: Symmetry/Antisymmetry/Encastre
*Boundary
_StaticPickedSet204, PINNED 
** Name: Fixed Type: Symmetry/Antisymmetry/Encastre
*Boundary
_StaticPickedSet205, PINNED 
** Name: Fixed Type: Symmetry/Antisymmetry/Encastre
*Boundary
_StaticPickedSet206, PINNED 
** Name: Fixed Type: Symmetry/Antisymmetry/Encastre
*Boundary
_StaticPickedSet207, PINNED 
** Name: Fixed Type: Symmetry/Antisymmetry/Encastre
*Boundary
_StaticPickedSet208, PINNED 
** Name: Fixed Type: Symmetry/Antisymmetry/Encastre
*Boundary
_StaticPickedSet209, PINNED 
** Name: Fixed Type: Symmetry/Antisymmetry/Encastre
*Boundary
_StaticPickedSet210, PINNED 
** Name: Fixed Type: Symmetry/Antisymmetry/Encastre
*Boundary
_StaticPickedSet211, PINNED 
** Name: Fixed Type: Symmetry/Antisymmetry/Encastre
*Boundary
_StaticPickedSet212, PINNED 
** Name: Fixed Type: Symmetry/Antisymmetry/Encastre
*Boundary
_StaticPickedSet213, PINNED 
** Name: Fixed Type: Symmetry/Antisymmetry/Encastre
*Boundary
_StaticPickedSet214, PINNED 
** Name: Fixed Type: Symmetry/Antisymmetry/Encastre
*Boundary
_StaticPickedSet215, PINNED 
** Name: Fixed Type: Symmetry/Antisymmetry/Encastre
*Boundary
_StaticPickedSet216, PINNED 
** Name: Fixed Type: Symmetry/Antisymmetry/Encastre
*Boundary
_StaticPickedSet217, PINNED 
** Name: Fixed Type: Symmetry/Antisymmetry/Encastre
*Boundary
_StaticPickedSet218, PINNED 
** Name: Fixed Type: Symmetry/Antisymmetry/Encastre
*Boundary
_StaticPickedSet219, PINNED 
** Name: Fixed Type: Symmetry/Antisymmetry/Encastre
*Boundary
_StaticPickedSet220, PINNED 
** Name: Fixed Type: Symmetry/Antisymmetry/Encastre
*Boundary
_StaticPickedSet221, PINNED 
** Name: Fixed Type: Symmetry/Antisymmetry/Encastre
*Boundary
_StaticPickedSet222, PINNED 
** Name: Fixed Type: Symmetry/Antisymmetry/Encastre
*Boundary
_StaticPickedSet223, PINNED 
** Name: Fixed Type: Symmetry/Antisymmetry/Encastre
*Boundary
_StaticPickedSet224, PINNED 
** Name: Fixed Type: Symmetry/Antisymmetry/Encastre
*Boundary
_StaticPickedSet225, PINNED 
** Name: Fixed Type: Symmetry/Antisymmetry/Encastre
*Boundary
_StaticPickedSet226, PINNED 
** Name: Fixed Type: Symmetry/Antisymmetry/Encastre
*Boundary
_StaticPickedSet227, PINNED 
** Name: Fixed Type: Symmetry/Antisymmetry/Encastre
*Boundary
_StaticPickedSet228, PINNED 
** Name: Fixed Type: Symmetry/Antisymmetry/Encastre
*Boundary
_StaticPickedSet229, PINNED 
** Name: Fixed Type: Symmetry/Antisymmetry/Encastre
*Boundary
_StaticPickedSet230, PINNED 
** Name: Fixed Type: Symmetry/Antisymmetry/Encastre
*Boundary
_StaticPickedSet231, PINNED 
** Name: Fixed Type: Symmetry/Antisymmetry/Encastre
*Boundary
_StaticPickedSet232, PINNED 
** Name: Fixed Type: Symmetry/Antisymmetry/Encastre
*Boundary
_StaticPickedSet233, PINNED 
** Name: Fixed Type: Symmetry/Antisymmetry/Encastre
*Boundary
_StaticPickedSet234, PINNED 
** Name: Fixed Type: Symmetry/Antisymmetry/Encastre
*Boundary
_StaticPickedSet235, PINNED 
** Name: Fixed Type: Symmetry/Antisymmetry/Encastre
*Boundary
_StaticPickedSet236, PINNED 
** Name: Fixed Type: Symmetry/Antisymmetry/Encastre
*Boundary
_StaticPickedSet237, PINNED 
** Name: Fixed Type: Symmetry/Antisymmetry/Encastre
*Boundary
_StaticPickedSet238, PINNED 
** Name: Fixed Type: Symmetry/Antisymmetry/Encastre
*Boundary
_StaticPickedSet239, PINNED 
** Name: Fixed Type: Symmetry/Antisymmetry/Encastre
*Boundary
_StaticPickedSet240, PINNED 
** Name: Fixed Type: Symmetry/Antisymmetry/Encastre
*Boundary
_StaticPickedSet241, PINNED 
** Name: Fixed Type: Symmetry/Antisymmetry/Encastre
*Boundary
_StaticPickedSet242, PINNED 
** Name: Fixed Type: Symmetry/Antisymmetry/Encastre
*Boundary
_StaticPickedSet243, PINNED 
** Name: Fixed Type: Symmetry/Antisymmetry/Encastre
*Boundary
_StaticPickedSet244, PINNED 
** Name: Fixed Type: Symmetry/Antisymmetry/Encastre
*Boundary
_StaticPickedSet245, PINNED 
** Name: Fixed Type: Symmetry/Antisymmetry/Encastre
*Boundary
_StaticPickedSet246, PINNED 
** Name: Fixed Type: Symmetry/Antisymmetry/Encastre
*Boundary
_StaticPickedSet247, PINNED 
** Name: Fixed Type: Symmetry/Antisymmetry/Encastre
*Boundary
_StaticPickedSet248, PINNED 
** Name: Fixed Type: Symmetry/Antisymmetry/Encastre
*Boundary
_StaticPickedSet249, PINNED 
** Name: Fixed Type: Symmetry/Antisymmetry/Encastre
*Boundary
_StaticPickedSet250, PINNED 
** Name: Fixed Type: Symmetry/Antisymmetry/Encastre
*Boundary
_StaticPickedSet251, PINNED 
** Name: Fixed Type: Symmetry/Antisymmetry/Encastre
*Boundary
_StaticPickedSet252, PINNED 
** Name: Fixed Type: Symmetry/Antisymmetry/Encastre
*Boundary
_StaticPickedSet253, PINNED 
** Name: Fixed Type: Symmetry/Antisymmetry/Encastre
*Boundary
_StaticPickedSet254, PINNED 
** Name: Fixed Type: Symmetry/Antisymmetry/Encastre
*Boundary
_StaticPickedSet255, PINNED 
** Name: Fixed Type: Symmetry/Antisymmetry/Encastre
*Boundary
_StaticPickedSet256, PINNED 
** Name: Fixed Type: Symmetry/Antisymmetry/Encastre
*Boundary
_StaticPickedSet257, PINNED 
** Name: Fixed Type: Symmetry/Antisymmetry/Encastre
*Boundary
_StaticPickedSet258, PINNED 
** Name: Fixed Type: Symmetry/Antisymmetry/Encastre
*Boundary
_StaticPickedSet259, PINNED 
** ----------------------------------------------------------------
**
** STEP: CustomLoad**
*Step, name=CustomLoad, nlgeom=YES, inc=5000
DiaLoad
*Dynamic,alpha=-0.05,haftol=0.1
0.01,3.,3e-05,3.
**
** BOUNDARY CONDITIONS
**
