<?xml version="1.0" encoding="ISO-8859-1"?>
<febio_spec version="1.2">
	<Module type="solid"/>
	<Control>
		<time_steps>100</time_steps>
		<step_size>0.05</step_size>
		<max_refs>15</max_refs>
		<max_ups>10</max_ups>
		<dtol>0.001</dtol>
		<etol>0.01</etol>
		<rtol>0</rtol>
		<lstol>0.9</lstol>
		<analysis type="static"/>
	</Control>
	<Globals>
		<Constants>
			<T>0</T>
			<R>0</R>
			<Fc>0</Fc>
		</Constants>
	</Globals>
	<Material>
		<material id="1" name="bunnyMaterial" type="neo-Hookean">
			<density>1000</density>
			<E>80000</E>
			<v>0.49</v>
		</material>
	</Material>
	<Geometry>
		<Nodes>
			<node id="1">-4.5320399e-002, 3.3864599e-002, 2.7401101e-002</node>
			<node id="2">-4.9285300e-002, 3.3845998e-002, 2.6410099e-002</node>
			<node id="3">-4.9291499e-002, 3.4245599e-002, 2.4071500e-002</node>
			<node id="4">-4.5587800e-002, 3.4377601e-002, 2.5164800e-002</node>
			<node id="5">-4.6407800e-002, 3.4552000e-002, 3.1677902e-002</node>
			<node id="6">-4.1524298e-002, 3.4198601e-002, 2.8905701e-002</node>
			<node id="7">-4.1329700e-002, 3.3975899e-002, 2.6591800e-002</node>
			<node id="8">-3.7535101e-002, 3.5159402e-002, 2.4850201e-002</node>
			<node id="9">-3.8600001e-002, 3.4200002e-002, 2.7200000e-002</node>
			<node id="10">-4.2864099e-002, 3.7172399e-002, 2.1812599e-002</node>
			<node id="11">-3.8267098e-002, 3.4237199e-002, 2.8071299e-002</node>
			<node id="12">-3.8384601e-002, 3.4386698e-002, 3.0104000e-002</node>
			<node id="13">-3.6353499e-002, 3.4457099e-002, 3.4524601e-002</node>
			<node id="14">-4.1283600e-002, 3.4457099e-002, 3.2708101e-002</node>
			<node id="15">-4.5430701e-002, 3.7598800e-002, 2.0255800e-002</node>
			<node id="16">-4.8999999e-002, 3.5723399e-002, 2.0688800e-002</node>
			<node id="17">-3.5731699e-002, 3.4017801e-002, 2.4303600e-002</node>
			<node id="18">-3.5007499e-002, 3.4275901e-002, 2.7236300e-002</node>
			<node id="19">-3.6649499e-002, 3.5337400e-002, 2.2901099e-002</node>
			<node id="20">-5.3357001e-002, 3.3521499e-002, 1.4353300e-002</node>
<!-- ... 4554 like lines cut -->
		</Nodes>
		<Elements>
			<tet4 id="1" mat="1">  2732,  2242,  3599,  4253</tet4>
			<tet4 id="2" mat="1">  3825,  3463,  4244,  4527</tet4>
			<tet4 id="3" mat="1">    10,     7,     8,  3991</tet4>
			<tet4 id="4" mat="1">  3409,  3373,  3355,  3497</tet4>
			<tet4 id="5" mat="1">  3934,  3614,  3960,  4534</tet4>
			<tet4 id="6" mat="1">   979,   985,  3572,  3588</tet4>
			<tet4 id="7" mat="1">  3309,  3411,  3374,  4005</tet4>
			<tet4 id="8" mat="1">   118,    93,    85,    94</tet4>
			<tet4 id="9" mat="1">  2887,  2888,  2583,  4436</tet4>
			<tet4 id="10" mat="1">  3545,  3690,  3815,  3873</tet4>
			<tet4 id="11" mat="1">  1764,  1765,  3683,  4362</tet4>
			<tet4 id="12" mat="1">  2149,  3008,  2148,  3833</tet4>
			<tet4 id="13" mat="1">  3913,  1520,  4464,  1519</tet4>
			<tet4 id="14" mat="1">   597,   639,   638,   640</tet4>
			<tet4 id="15" mat="1">  1735,  1734,  3981,  4314</tet4>
			<tet4 id="16" mat="1">  2716,  2601,  2708,  4073</tet4>
			<tet4 id="17" mat="1">   934,   936,  4105,  4333</tet4>
			<tet4 id="18" mat="1">  3283,  3323,  3944,  4496</tet4>
			<tet4 id="19" mat="1">  2265,  1918,  2268,  3999</tet4>
			<tet4 id="20" mat="1">     7,     8,  3991,  4413</tet4>
<!-- ... 17331 like lines cut -->
		</Elements>
	</Geometry>
	<Boundary>
		<fix>
			<node id="1" bc="z"/>
			<node id="2" bc="z"/>
			<node id="3" bc="z"/>
			<node id="4" bc="z"/>
			<node id="5" bc="z"/>
			<node id="6" bc="z"/>
			<node id="7" bc="z"/>
			<node id="9" bc="z"/>
			<node id="11" bc="z"/>
			<node id="12" bc="z"/>
			<node id="13" bc="z"/>
			<node id="14" bc="z"/>
			<node id="17" bc="z"/>
			<node id="18" bc="z"/>
			<node id="20" bc="z"/>
			<node id="21" bc="z"/>
			<node id="23" bc="z"/>
			<node id="25" bc="z"/>
			<node id="26" bc="z"/>
			<node id="28" bc="z"/>
<!-- ... 240 like lines cut -->
		</fix>
		<fix>
			<node id="1" bc="y"/>
			<node id="2" bc="y"/>
			<node id="3" bc="y"/>
			<node id="4" bc="y"/>
			<node id="5" bc="y"/>
			<node id="6" bc="y"/>
			<node id="7" bc="y"/>
			<node id="9" bc="y"/>
			<node id="11" bc="y"/>
			<node id="12" bc="y"/>
			<node id="13" bc="y"/>
			<node id="14" bc="y"/>
			<node id="17" bc="y"/>
			<node id="18" bc="y"/>
			<node id="20" bc="y"/>
			<node id="21" bc="y"/>
			<node id="23" bc="y"/>
			<node id="25" bc="y"/>
			<node id="26" bc="y"/>
			<node id="28" bc="y"/>
<!-- ... 240 like lines cut -->
		</fix>
		<fix>
			<node id="1" bc="x"/>
			<node id="2" bc="x"/>
			<node id="3" bc="x"/>
			<node id="4" bc="x"/>
			<node id="5" bc="x"/>
			<node id="6" bc="x"/>
			<node id="7" bc="x"/>
			<node id="9" bc="x"/>
			<node id="11" bc="x"/>
			<node id="12" bc="x"/>
			<node id="13" bc="x"/>
			<node id="14" bc="x"/>
			<node id="17" bc="x"/>
			<node id="18" bc="x"/>
			<node id="20" bc="x"/>
			<node id="21" bc="x"/>
			<node id="23" bc="x"/>
			<node id="25" bc="x"/>
			<node id="26" bc="x"/>
			<node id="28" bc="x"/>
<!-- ... 240 like lines cut -->
		</fix>
	</Boundary>
	<Output>
		<plotfile type="febio">
			<var type="displacement"/>
			<var type="stress"/>
		</plotfile>
	</Output>
</febio_spec>
